testData/tamu2000/pfcases_100_zone3/Equ_tx2000_hr_5013_mod_v23_zone3_pslf.raw
0  100.000 
THIS IS A SYNTHETIC POWER SYSTEM MODEL THAT DOES NOT REPRESE
DATA RESEARCH PROJECT AND CONTAINS NO CEII.
1004,  2,  52.559,  -24.788,  0.000,  0.000,  1,  1.02313,  -55.3717,  'O DONNEL',  230.00,  9
1009,  2,  26.885,  -2.941,  0.000,  0.000,  1,  1.00975,  -44.0393,  'IRAAN 2 ',  13.800,  9
1021,  2,  41.334,  -15.045,  0.000,  0.000,  1,  1.00771,  -47.0642,  'BIG SPRI',  13.800,  9
1023,  2,  32.352,  -2.856,  0.000,  0.000,  1,  1.01000,  -47.1084,  'O DONNEL',  13.800,  9
1026,  2,  37.065,  -10.209,  0.000,  0.000,  1,  1.00446,  -45.2309,  'BIG SPRI',  13.800,  9
1033,  2,  161.181,  -34.488,  0.000,  0.000,  1,  1.00140,  -51.8157,  'MCCAMEY ',  230.00,  9
1035,  2,  51.447,  -10.024,  0.000,  0.000,  1,  1.00000,  -45.2102,  'BIG SPRI',  13.800,  9
1039,  2,  24.929,  -6.471,  0.000,  0.000,  1,  1.00000,  -41.2517,  'FORT STO',  22.000,  9
1042,  2,  54.271,  -3.899,  0.000,  0.000,  1,  1.00000,  -41.5643,  'FORSAN 1',  13.800,  9
1043,  2,  40.899,  -3.941,  0.000,  0.000,  1,  1.00000,  -44.8552,  'FORSAN 2',  13.800,  9
1048,  2,  82.522,  -0.890,  0.000,  0.000,  1,  1.00000,  -39.3457,  'MONAHANS',  18.000,  9
1049,  2,  54.431,  4.724,  0.000,  0.000,  1,  1.00000,  -33.6616,  'MONAHANS',  18.000,  9
1053,  2,  44.823,  -8.838,  0.000,  0.000,  1,  1.00535,  -50.0999,  'MONAHANS',  230.00,  9
1057,  2,  68.469,  -16.431,  0.000,  0.000,  1,  1.00371,  -47.2695,  'LENORAH ',  18.000,  9
1066,  2,  54.583,  -5.710,  0.000,  0.000,  1,  1.00000,  -41.8417,  'BIG SPRI',  13.800,  9
1070,  2,  51.997,  -0.453,  0.000,  0.000,  1,  1.04000,  -43.4628,  'IRAAN 1 ',  13.800,  9
1072,  3,  28.750,  -2.463,  0.000,  0.000,  1,  1.01000,  -61.2569,  'ODESSA 1',  18.000,  9
1073,  2,  22.483,  -1.371,  0.000,  0.000,  1,  1.01000,  -56.3312,  'ODESSA 1',  18.000,  9
1074,  2,  23.452,  -0.231,  0.000,  0.000,  1,  1.01000,  -56.5342,  'ODESSA 1',  18.000,  9
1075,  2,  28.541,  -0.312,  0.000,  0.000,  1,  1.01000,  -57.3415,  'ODESSA 1',  18.000,  9
1076,  2,  60.385,  -2.346,  0.000,  0.000,  1,  1.01000,  -58.9715,  'ODESSA 1',  18.000,  9
1077,  2,  24.128,  -0.444,  0.000,  0.000,  1,  1.01000,  -56.6638,  'ODESSA 1',  18.000,  9
1081,  2,  75.267,  -29.654,  0.000,  0.000,  1,  1.01000,  -52.2754,  'ODESSA 1',  230.00,  9
1082,  2,  76.859,  -29.107,  0.000,  0.000,  1,  1.01901,  -44.1597,  'FORT STO',  115.00,  9
1084,  2,  116.000,  -38.781,  0.000,  0.000,  1,  1.03454,  -53.7294,  'BIG SPRI',  115.00,  9
1088,  2,  46.065,  -6.296,  0.000,  0.000,  1,  1.00000,  -47.5630,  'MCCAMEY ',  115.00,  9
1090,  2,  139.493,  0.595,  0.000,  0.000,  1,  1.01285,  -56.1318,  'GOLDSMIT',  115.00,  9
2004,  2,  121.192,  -22.662,  0.000,  0.000,  2,  1.02000,  -77.2650,  'SAVOY 2 ',  13.800,  11
2005,  2,  104.013,  -19.623,  0.000,  0.000,  2,  1.02000,  -77.1039,  'SAVOY 3 ',  13.800,  11
2006,  2,  72.035,  -12.858,  0.000,  0.000,  2,  1.02000,  -76.4840,  'SAVOY 4 ',  13.800,  11
2024,  2,  81.330,  -15.613,  0.000,  0.000,  2,  1.02213,  -76.8934,  'PARIS 2 ',  13.800,  11
2057,  3,  149.089,  -103.823,  0.000,  0.000,  2,  0.99000,  -76.0436,  'WICHITA ',  18.000,  11
2071,  2,  24.128,  -9.715,  0.000,  0.000,  2,  1.00000,  -71.5123,  'ARCHER 2',  18.000,  11
2078,  2,  54.750,  -15.910,  0.000,  0.000,  2,  1.02000,  -80.4027,  'MUENSTER',  13.800,  11
2100,  2,  79.240,  -21.599,  0.000,  0.000,  2,  1.02114,  -64.5066,  'RALLS 1 ',  18.000,  10
2103,  2,  176.008,  -28.113,  0.000,  0.000,  2,  1.02215,  -78.2141,  'SHERMAN ',  20.000,  11
2104,  2,  128.840,  -20.583,  0.000,  0.000,  2,  1.02100,  -78.0424,  'SHERMAN ',  20.000,  11
2105,  2,  79.416,  -13.925,  0.000,  0.000,  2,  1.01836,  -77.6174,  'SHERMAN ',  20.000,  11
2115,  2,  58.308,  -10.601,  0.000,  0.000,  2,  1.01909,  -75.1380,  'PARIS 1 ',  13.800,  11
2116,  2,  103.977,  -18.361,  0.000,  0.000,  2,  1.02287,  -76.2278,  'PARIS 1 ',  13.800,  11
2117,  2,  51.927,  -8.799,  0.000,  0.000,  2,  1.01723,  -74.7807,  'PARIS 1 ',  13.800,  11
2118,  2,  49.364,  -8.526,  0.000,  0.000,  2,  1.01623,  -74.4942,  'PARIS 1 ',  13.800,  11
2119,  2,  82.707,  -15.335,  0.000,  0.000,  2,  1.02196,  -75.9715,  'PARIS 1 ',  13.800,  11
2120,  2,  50.867,  -8.916,  0.000,  0.000,  2,  1.01678,  -74.6082,  'PARIS 1 ',  13.800,  11
3017,  2,  38.783,  4.349,  0.000,  0.000,  3,  1.01000,  -52.1020,  'BLACKWEL',  18.000,  27
3020,  2,  131.472,  -6.705,  0.000,  0.000,  3,  1.03000,  -59.2614,  'CHRISTOV',  13.800,  27
3028,  2,  53.930,  1.877,  0.000,  0.000,  3,  1.04000,  -66.7750,  'ABILENE ',  18.000,  27
3034,  2,  32.569,  -1.836,  0.000,  0.000,  3,  1.03000,  -46.0516,  'SNYDER 1',  22.000,  27
3039,  2,  32.427,  -8.277,  0.000,  0.000,  3,  1.04000,  -57.1052,  'ROSCOE 2',  13.800,  27
3045,  2,  11.269,  -3.149,  0.000,  0.000,  3,  1.04000,  -55.6984,  'SILVER 4',  13.800,  27
3048,  2,  614.252,  -670.548,  0.000,  0.000,  3,  1.04023,  -69.5258,  'ROSCOE 5',  500.00,  27
3055,  2,  54.203,  -0.105,  0.000,  0.000,  3,  1.04000,  -57.8556,  'WINGATE ',  13.800,  27
3056,  2,  38.566,  2.138,  0.000,  0.000,  3,  1.04000,  -55.9788,  'WINGATE ',  13.800,  27
3057,  2,  39.316,  1.750,  0.000,  0.000,  3,  1.04000,  -56.0977,  'WINGATE ',  13.800,  27
3060,  2,  21.800,  0.537,  0.000,  0.000,  3,  1.04000,  -51.4899,  'STERLING',  18.000,  27
3061,  2,  24.691,  0.565,  0.000,  0.000,  3,  1.04000,  -53.0675,  'STERLING',  18.000,  27
3062,  2,  32.395,  -3.417,  0.000,  0.000,  3,  1.04000,  -55.0166,  'STERLING',  18.000,  27
3063,  2,  28.831,  0.205,  0.000,  0.000,  3,  1.04000,  -54.1771,  'STERLING',  18.000,  27
3065,  2,  6.549,  -6.832,  0.000,  0.000,  3,  1.01360,  -50.1409,  'ROSCOE 4',  18.000,  27
3068,  2,  35.011,  0.757,  0.000,  0.000,  3,  1.04000,  -52.1827,  'TRENT 1 ',  20.000,  27
3071,  2,  24.098,  -3.170,  0.000,  0.000,  3,  1.00772,  -51.8638,  'NOLAN 1 ',  24.000,  27
3074,  2,  71.579,  -5.092,  0.000,  0.000,  3,  1.00000,  -89.2762,  'BRACKETT',  13.800,  28
3081,  2,  20.101,  -2.565,  0.000,  0.000,  3,  1.04000,  -54.9064,  'HERMLEIG',  20.000,  27
3084,  2,  24.624,  -8.923,  0.000,  0.000,  3,  1.00000,  -53.2034,  'MERKEL 1',  13.800,  27
3086,  2,  17.758,  -2.449,  0.000,  0.000,  3,  1.00183,  -49.3021,  'LORAINE ',  13.200,  27
3087,  2,  19.367,  -2.328,  0.000,  0.000,  3,  1.00250,  -48.2964,  'LORAINE ',  13.200,  27
3092,  2,  40.450,  7.479,  0.000,  0.000,  3,  1.04000,  -60.0498,  'ABILENE ',  13.800,  27
3095,  2,  25.999,  6.357,  0.000,  0.000,  3,  1.04000,  -52.1343,  'MERKEL 2',  18.000,  27
3098,  2,  23.498,  -2.131,  0.000,  0.000,  3,  1.04000,  -52.0640,  'FLUVANNA',  13.800,  27
3106,  3,  20.031,  -5.626,  0.000,  0.000,  3,  1.00000,  -77.3046,  'BUCHANAN',  13.200,  28
3110,  2,  22.995,  -1.740,  0.000,  0.000,  3,  1.04000,  -52.4625,  'FLUVANNA',  13.800,  27
3112,  2,  12.801,  -5.322,  0.000,  0.000,  3,  1.00799,  -49.0762,  'STERLING',  18.000,  27
3113,  2,  12.801,  -5.322,  0.000,  0.000,  3,  1.00799,  -49.0762,  'STERLING',  18.000,  27
3117,  2,  39.544,  -5.674,  0.000,  0.000,  3,  1.00058,  -49.5293,  'SYNDER 1',  13.800,  27
3118,  2,  49.375,  -9.228,  0.000,  0.000,  3,  1.00000,  -48.8135,  'SYNDER 2',  13.800,  27
3122,  2,  22.394,  -0.325,  0.000,  0.000,  3,  1.00000,  -45.1507,  'ROSCOE 1',  18.000,  27
3127,  2,  18.038,  -3.282,  0.000,  0.000,  3,  1.02031,  -51.7294,  'SWEETWAT',  115.00,  27
3129,  2,  29.829,  -41.388,  0.000,  0.000,  3,  1.02676,  -52.0817,  'ROSCOE 3',  115.00,  27
3131,  2,  144.812,  -19.041,  0.000,  0.000,  3,  1.02000,  -55.8883,  'TUSOCOLA',  115.00,  27
3137,  2,  125.193,  -20.164,  0.000,  0.000,  3,  1.02912,  -56.9889,  'SWEETWAT',  115.00,  27
3141,  2,  50.126,  -15.588,  0.000,  0.000,  3,  1.02204,  -52.8047,  'SWEETWAT',  115.00,  27
4010,  2,  58.312,  -5.930,  0.000,  0.000,  4,  1.03000,  -92.0096,  'SARITA 3',  20.000,  21
4026,  2,  192.983,  -15.204,  0.000,  0.000,  4,  1.03000,  -77.6812,  'CHRISTIN',  13.800,  20
4030,  3,  217.042,  -11.940,  0.000,  0.000,  4,  1.01000,  -69.1537,  'FANNIN 2',  13.800,  21
4050,  2,  25.782,  -8.604,  0.000,  0.000,  4,  1.01065,  -103.4289,  'SEBASTIA',  13.800,  19
4058,  2,  32.632,  5.567,  0.000,  0.000,  4,  1.03000,  -87.1644,  'GREGORY ',  13.800,  21
4059,  2,  38.356,  5.829,  0.000,  0.000,  4,  1.03000,  -87.3810,  'GREGORY ',  13.800,  21
4060,  2,  25.644,  3.877,  0.000,  0.000,  4,  1.03000,  -86.5579,  'GREGORY ',  13.800,  21
4061,  2,  33.434,  5.682,  0.000,  0.000,  4,  1.03000,  -86.9206,  'GREGORY ',  13.800,  21
4062,  2,  30.158,  4.116,  0.000,  0.000,  4,  1.03000,  -86.5210,  'GREGORY ',  13.800,  21
4063,  2,  32.851,  6.016,  0.000,  0.000,  4,  1.03000,  -86.8889,  'GREGORY ',  13.800,  21
4082,  2,  37.905,  1.976,  0.000,  0.000,  4,  1.04000,  -88.3826,  'CORPUS C',  13.800,  21
4083,  2,  40.483,  1.998,  0.000,  0.000,  4,  1.04000,  -88.6824,  'CORPUS C',  13.800,  21
4084,  2,  54.988,  0.164,  0.000,  0.000,  4,  1.04000,  -90.2740,  'CORPUS C',  13.800,  21
4085,  2,  67.442,  -0.556,  0.000,  0.000,  4,  1.04000,  -89.8186,  'CORPUS C',  13.800,  21
4105,  2,  138.598,  13.106,  0.000,  0.000,  4,  1.01000,  -92.2942,  'TAFT 2 1',  18.000,  21
4115,  2,  117.192,  -0.755,  0.000,  0.000,  4,  1.04000,  -92.9756,  'LAREDO 1',  13.800,  20
4116,  2,  111.501,  -1.724,  0.000,  0.000,  4,  1.04000,  -92.9225,  'LAREDO 1',  13.800,  20
4142,  2,  131.191,  -6.901,  0.000,  0.000,  4,  1.04000,  -93.0223,  'SARITA 1',  13.800,  21
4153,  2,  299.740,  -18.548,  0.000,  0.000,  4,  1.04000,  -94.9540,  'ARMSTRON',  18.000,  21
4160,  2,  135.299,  26.037,  0.000,  0.000,  4,  1.03000,  -88.8624,  'CORPUS C',  13.800,  21
4161,  2,  63.363,  12.836,  0.000,  0.000,  4,  1.03000,  -86.6664,  'CORPUS C',  13.800,  21
4162,  2,  64.171,  11.599,  0.000,  0.000,  4,  1.03000,  -86.7132,  'CORPUS C',  13.800,  21
4166,  2,  48.625,  -5.391,  0.000,  0.000,  4,  1.01415,  -91.0743,  'SARITA 2',  13.800,  21
4177,  2,  87.119,  -4.309,  0.000,  0.000,  4,  1.04000,  -90.3471,  'BRUNI 1 ',  13.800,  20
4181,  2,  228.843,  1.128,  0.000,  0.000,  4,  1.02112,  -87.3336,  'TAFT 1 0',  230.00,  21
4183,  2,  369.376,  -27.066,  0.000,  0.000,  4,  1.02571,  -97.0797,  'SAN PERL',  230.00,  19
4192,  2,  871.187,  56.254,  0.000,  0.000,  4,  1.02000,  -98.4871,  'BROWNSVI',  230.00,  19
4194,  2,  779.037,  -99.067,  0.000,  0.000,  4,  1.01997,  -106.5597,  'SEBASTIA',  115.00,  19
4195,  2,  508.291,  -149.218,  0.000,  0.000,  4,  1.02768,  -87.1860,  'OILTON 0',  500.00,  20
5020,  2,  54.550,  -18.926,  0.000,  0.000,  5,  1.02184,  -73.6252,  'JACKSBOR',  13.800,  12
5037,  2,  254.880,  -11.559,  0.000,  0.000,  5,  1.02106,  -77.8575,  'DALLAS 1',  13.200,  16
5038,  2,  246.300,  -10.503,  0.000,  0.000,  5,  1.02086,  -77.8101,  'DALLAS 1',  13.200,  16
5039,  2,  602.247,  -36.236,  0.000,  0.000,  5,  1.02341,  -78.6677,  'DALLAS 1',  13.200,  16
5040,  2,  187.123,  -8.108,  0.000,  0.000,  5,  1.02000,  -77.3334,  'DALLAS 1',  13.200,  16
5041,  2,  272.130,  -14.322,  0.000,  0.000,  5,  1.02148,  -77.9469,  'DALLAS 1',  13.200,  16
5042,  2,  229.185,  -9.320,  0.000,  0.000,  5,  1.02051,  -77.7001,  'DALLAS 1',  13.200,  16
5057,  2,  114.704,  -31.167,  0.000,  0.000,  5,  1.02117,  -72.6779,  'GRAHAM 2',  13.800,  12
5058,  2,  83.087,  -21.407,  0.000,  0.000,  5,  1.01877,  -71.9149,  'GRAHAM 3',  13.800,  12
5067,  2,  388.055,  -23.032,  0.000,  0.000,  5,  1.03000,  -77.1493,  'ARLINGTO',  13.800,  17
5068,  2,  369.647,  -22.287,  0.000,  0.000,  5,  1.03000,  -77.0573,  'ARLINGTO',  13.800,  17
5069,  2,  347.724,  -20.480,  0.000,  0.000,  5,  1.03000,  -76.9345,  'ARLINGTO',  13.800,  17
5166,  2,  175.856,  -22.585,  0.000,  0.000,  5,  1.04000,  -78.9092,  'DENTON 1',  13.800,  17
5198,  2,  136.373,  -32.286,  0.000,  0.000,  5,  1.02312,  -74.8298,  'BRYSON 1',  18.000,  12
5206,  2,  105.611,  -17.528,  0.000,  0.000,  5,  1.02062,  -74.7378,  'POOLVILL',  13.800,  12
5207,  2,  188.037,  -33.082,  0.000,  0.000,  5,  1.02314,  -75.4664,  'POOLVILL',  13.800,  12
5208,  2,  150.790,  -26.140,  0.000,  0.000,  5,  1.02237,  -75.2486,  'POOLVILL',  13.800,  12
5238,  2,  123.226,  -86.461,  0.000,  0.000,  5,  1.02465,  -73.2933,  'OLNEY 1 ',  18.000,  12
5243,  2,  131.818,  -28.234,  0.000,  0.000,  5,  1.03222,  -75.5619,  'GOLDTHWA',  13.800,  18
5262,  2,  335.531,  -10.310,  0.000,  0.000,  5,  1.01278,  -69.7468,  'GLEN ROS',  13.800,  18
5263,  2,  456.779,  -19.428,  0.000,  0.000,  5,  1.01548,  -70.9787,  'GLEN ROS',  13.800,  18
5281,  2,  152.451,  -9.569,  0.000,  0.000,  5,  1.01971,  -77.1951,  'TEMPLE 1',  13.800,  13
5282,  2,  180.834,  -11.374,  0.000,  0.000,  5,  1.02063,  -77.3300,  'TEMPLE 1',  13.800,  13
5283,  2,  240.599,  -16.123,  0.000,  0.000,  5,  1.02186,  -77.5025,  'TEMPLE 1',  13.800,  13
5302,  2,  247.546,  -16.956,  0.000,  0.000,  5,  1.04000,  -78.5842,  'MCKINNEY',  13.800,  16
5303,  2,  341.453,  -25.801,  0.000,  0.000,  5,  1.04000,  -78.9155,  'MCKINNEY',  13.800,  16
5319,  2,  173.630,  -14.719,  0.000,  0.000,  5,  1.01509,  -75.0710,  'GRANBURY',  13.200,  18
5320,  2,  158.476,  -14.903,  0.000,  0.000,  5,  1.01467,  -74.9803,  'GRANBURY',  13.200,  18
5321,  2,  180.327,  -14.773,  0.000,  0.000,  5,  1.01535,  -75.1067,  'GRANBURY',  13.200,  18
5324,  2,  209.418,  -4.036,  0.000,  0.000,  5,  1.04000,  -77.4119,  'DALLAS 2',  13.800,  17
5325,  2,  209.397,  -2.502,  0.000,  0.000,  5,  1.04000,  -77.4071,  'DALLAS 2',  13.800,  17
5326,  2,  642.744,  -50.796,  0.000,  0.000,  5,  1.04000,  -78.8979,  'DALLAS 2',  13.800,  17
5360,  3,  172.837,  -14.391,  0.000,  0.000,  5,  1.01000,  -75.6413,  'RIESEL 1',  13.800,  13
5364,  2,  201.096,  -26.646,  0.000,  0.000,  5,  1.02280,  -75.9326,  'BRIDGEPO',  13.800,  12
5365,  2,  101.437,  -12.601,  0.000,  0.000,  5,  1.02035,  -75.2346,  'BRIDGEPO',  13.800,  12
5366,  2,  93.225,  -10.947,  0.000,  0.000,  5,  1.01978,  -75.0485,  'BRIDGEPO',  13.800,  12
5367,  2,  94.373,  -11.563,  0.000,  0.000,  5,  1.01987,  -75.0943,  'BRIDGEPO',  13.800,  12
5368,  2,  135.318,  -18.049,  0.000,  0.000,  5,  1.02165,  -75.5917,  'BRIDGEPO',  13.800,  12
5369,  2,  90.092,  -10.522,  0.000,  0.000,  5,  1.01950,  -74.9676,  'BRIDGEPO',  13.800,  12
5382,  2,  195.215,  -0.020,  0.000,  0.000,  5,  1.04000,  -77.7741,  'ENNIS 2 ',  13.800,  14
5383,  2,  171.696,  1.365,  0.000,  0.000,  5,  1.04000,  -77.6126,  'ENNIS 3 ',  13.800,  14
5399,  2,  98.814,  -42.653,  0.000,  0.000,  5,  1.04000,  -69.3696,  'ALBANY 1',  13.800,  15
5415,  2,  68.646,  -16.551,  0.000,  0.000,  5,  1.02453,  -74.4196,  'PALO PIN',  13.800,  12
5416,  2,  69.507,  -16.173,  0.000,  0.000,  5,  1.02445,  -74.4130,  'PALO PIN',  13.800,  12
5417,  2,  76.774,  -18.145,  0.000,  0.000,  5,  1.02493,  -74.4901,  'PALO PIN',  13.800,  12
5418,  2,  78.953,  -19.692,  0.000,  0.000,  5,  1.02527,  -74.5205,  'PALO PIN',  13.800,  12
5419,  2,  126.066,  -31.394,  0.000,  0.000,  5,  1.02667,  -74.7431,  'PALO PIN',  13.800,  12
5444,  2,  1398.954,  -184.111,  0.000,  0.000,  5,  1.01973,  -77.7861,  'MIDLOTHI',  500.00,  17
6006,  2,  66.172,  -6.705,  0.000,  0.000,  6,  1.04000,  -73.5591,  'BASTROP ',  13.800,  25
6007,  2,  104.476,  -10.734,  0.000,  0.000,  6,  1.04000,  -73.0691,  'BASTROP ',  13.800,  25
6008,  2,  56.664,  -4.071,  0.000,  0.000,  6,  1.04000,  -73.4904,  'BASTROP ',  13.800,  25
6009,  2,  39.870,  -1.133,  0.000,  0.000,  6,  1.04000,  -72.8968,  'BASTROP ',  13.800,  25
6010,  2,  49.826,  -3.772,  0.000,  0.000,  6,  1.04000,  -73.3455,  'BASTROP ',  13.800,  25
6042,  2,  20.769,  1.921,  0.000,  0.000,  6,  1.04000,  -75.1087,  'AUSTIN 3',  13.800,  23
6062,  1,  260.963,  -15.585,  0.000,  0.000,  6,  1.02435,  -74.4314,  'BRENHAM ',  500.00,  25
6069,  2,  148.474,  -15.574,  0.000,  0.000,  6,  1.03000,  -74.1707,  'MARION 1',  18.000,  22
6070,  2,  61.203,  -5.917,  0.000,  0.000,  6,  1.03000,  -73.6636,  'MARION 1',  18.000,  22
6071,  2,  188.764,  -19.455,  0.000,  0.000,  6,  1.03000,  -74.2449,  'MARION 1',  18.000,  22
6072,  2,  73.388,  -6.550,  0.000,  0.000,  6,  1.03000,  -73.8181,  'MARION 1',  18.000,  22
6073,  2,  116.703,  -11.637,  0.000,  0.000,  6,  1.03000,  -74.0533,  'MARION 1',  18.000,  22
6074,  2,  117.618,  -12.494,  0.000,  0.000,  6,  1.03000,  -74.0568,  'MARION 1',  18.000,  22
6078,  2,  38.709,  -21.953,  0.000,  0.000,  6,  1.01181,  -71.3524,  'LA GRANG',  22.000,  25
6079,  2,  72.419,  -42.004,  0.000,  0.000,  6,  1.01608,  -71.9410,  'LA GRANG',  22.000,  25
6080,  2,  56.105,  -31.794,  0.000,  0.000,  6,  1.01469,  -71.7554,  'LA GRANG',  22.000,  25
6106,  2,  71.465,  -17.844,  0.000,  0.000,  6,  1.02878,  -72.7076,  'WINCHEST',  13.800,  25
6110,  2,  174.655,  -13.183,  0.000,  0.000,  6,  1.04000,  -74.9597,  'ROCKDALE',  13.800,  25
6111,  2,  177.129,  -12.900,  0.000,  0.000,  6,  1.04000,  -74.8483,  'ROCKDALE',  13.800,  25
6145,  2,  133.890,  0.210,  0.000,  0.000,  6,  1.03000,  -70.5362,  'SAN ANTO',  13.800,  22
6146,  2,  138.720,  0.134,  0.000,  0.000,  6,  1.03000,  -70.6507,  'SAN ANTO',  13.800,  22
6147,  3,  161.163,  3.261,  0.000,  0.000,  6,  1.03000,  -69.5058,  'SAN ANTO',  13.800,  22
6148,  2,  250.719,  -7.584,  0.000,  0.000,  6,  1.03000,  -72.5660,  'SAN ANTO',  13.800,  22
6149,  2,  474.362,  -16.143,  0.000,  0.000,  6,  1.03000,  -73.0806,  'SAN ANTO',  13.800,  22
6164,  2,  98.387,  -11.068,  0.000,  0.000,  6,  1.03000,  -72.0444,  'SEGUIN 1',  13.800,  22
6165,  2,  94.231,  -10.187,  0.000,  0.000,  6,  1.03000,  -71.9050,  'SEGUIN 1',  13.800,  22
6166,  2,  196.075,  -25.580,  0.000,  0.000,  6,  1.03000,  -72.6901,  'SEGUIN 1',  13.800,  22
6167,  2,  111.623,  -12.934,  0.000,  0.000,  6,  1.03000,  -72.1953,  'SEGUIN 1',  13.800,  22
6188,  1,  211.735,  -15.121,  0.000,  0.000,  6,  1.00363,  -73.8590,  'COLUMBUS',  230.00,  25
6195,  1,  48.726,  1.482,  0.000,  0.000,  6,  0.99090,  -79.9881,  'INDUSTRY',  115.00,  25
6214,  2,  48.027,  -9.746,  0.000,  0.000,  6,  1.04000,  -74.9549,  'MARBLE F',  13.800,  23
6215,  2,  222.535,  -62.072,  0.000,  0.000,  6,  1.04071,  -75.6688,  'MARBLE F',  13.800,  23
6216,  2,  83.661,  -21.133,  0.000,  0.000,  6,  1.04000,  -75.3595,  'MARBLE F',  13.800,  23
6243,  2,  78.928,  -10.125,  0.000,  0.000,  6,  1.04000,  -72.3444,  'ELMENDOR',  13.800,  22
6244,  2,  95.836,  -11.898,  0.000,  0.000,  6,  1.04000,  -71.5683,  'ELMENDOR',  13.800,  22
6245,  2,  111.047,  -15.181,  0.000,  0.000,  6,  1.04000,  -71.8584,  'ELMENDOR',  13.800,  22
6246,  2,  213.003,  -34.274,  0.000,  0.000,  6,  1.04000,  -72.6256,  'ELMENDOR',  13.800,  22
6247,  2,  174.637,  -29.091,  0.000,  0.000,  6,  1.04000,  -72.9470,  'ELMENDOR',  13.800,  22
6248,  2,  86.857,  -11.831,  0.000,  0.000,  6,  1.04000,  -72.4466,  'ELMENDOR',  13.800,  22
6249,  2,  62.961,  -6.818,  0.000,  0.000,  6,  1.04000,  -72.0060,  'ELMENDOR',  13.800,  22
6257,  2,  95.467,  2.569,  0.000,  0.000,  6,  1.03380,  -74.6709,  'AUSTIN 2',  13.800,  23
6258,  2,  52.091,  1.005,  0.000,  0.000,  6,  1.03171,  -74.0398,  'AUSTIN 2',  13.800,  23
...
 0 /End of Bus data, Begin Generator data
1004,  '1',  115.615,  -30.380,  44.940,  -30.380,  1.01000,  0,  253.200,  0.00000,  1.00000,  0.00000,  0.00000,  1.00000,  1,  100.0,  211.000,  63.300
1009,  '1',  45.201,  -11.880,  17.570,  -11.880,  1.00000,  0,  99.000,  0.00000,  1.00000,  0.00000,  0.00000,  1.00000,  1,  100.0,  82.500,  24.750
1021,  '1',  109.317,  -28.730,  42.490,  -28.730,  1.00000,  0,  239.400,  0.00000,  1.00000,  0.00000,  0.00000,  1.00000,  1,  100.0,  199.500,  59.850
1023,  '1',  98.629,  -8.115,  38.340,  -25.920,  1.01000,  0,  216.000,  0.00000,  1.00000,  0.00000,  0.00000,  1.00000,  1,  100.0,  180.000,  54.000
1026,  '1',  68.054,  -17.880,  26.450,  -17.880,  1.00000,  0,  149.040,  0.00000,  1.00000,  0.00000,  0.00000,  1.00000,  1,  100.0,  124.200,  37.260
1033,  '1',  152.326,  -40.030,  59.210,  -40.030,  1.00000,  0,  333.600,  0.00000,  1.00000,  0.00000,  0.00000,  1.00000,  1,  100.0,  278.000,  83.400
1035,  '1',  49.314,  -12.296,  19.170,  -12.960,  1.00000,  0,  108.000,  0.00000,  1.00000,  0.00000,  0.00000,  1.00000,  1,  100.0,  90.000,  27.000
1039,  '1',  80.824,  -19.501,  31.420,  -21.240,  1.00000,  0,  177.000,  0.00000,  1.00000,  0.00000,  0.00000,  1.00000,  1,  100.0,  147.500,  44.250
1042,  '1',  89.058,  -6.092,  25.960,  -17.550,  1.00000,  0,  146.280,  0.00000,  1.00000,  0.00000,  0.00000,  1.00000,  1,  100.0,  121.900,  36.570
1043,  '1',  32.219,  -6.273,  12.520,  -8.470,  1.00000,  0,  70.560,  0.00000,  1.00000,  0.00000,  0.00000,  1.00000,  1,  100.0,  58.800,  17.640
1048,  '1',  188.620,  0.252,  165.530,  -36.100,  1.00000,  0,  390.240,  0.00000,  0.10170,  0.00000,  0.00000,  1.00000,  1,  100.0,  325.200,  97.560
1049,  '1',  188.620,  15.657,  165.530,  -36.100,  1.00000,  0,  390.240,  0.00000,  0.13490,  0.00000,  0.00000,  1.00000,  1,  100.0,  325.200,  97.560
1053,  '1',  53.640,  -19.850,  91.010,  -19.850,  1.00000,  0,  214.560,  0.00000,  0.16870,  0.00000,  0.00000,  1.00000,  1,  100.0,  178.800,  53.640
1057,  '1',  87.670,  -17.280,  25.560,  -17.280,  1.00000,  0,  144.000,  0.00000,  1.00000,  0.00000,  0.00000,  1.00000,  1,  100.0,  120.000,  36.000
1066,  '1',  78.085,  -7.697,  30.350,  -20.520,  1.00000,  0,  171.000,  0.00000,  1.00000,  0.00000,  0.00000,  1.00000,  1,  100.0,  142.500,  42.750
1070,  '1',  87.947,  20.882,  34.190,  -23.110,  1.04000,  0,  192.600,  0.00000,  1.00000,  0.00000,  0.00000,  1.00000,  1,  100.0,  160.500,  48.150
1072,  '1',  -14.262,  0.566,  97.800,  -21.330,  1.01000,  0,  230.560,  0.00000,  0.30820,  0.00000,  0.00000,  1.00000,  1,  100.0,  192.130,  57.640
1073,  '1',  57.640,  -3.879,  97.800,  -21.330,  1.01000,  0,  230.560,  0.00000,  0.19480,  0.00000,  0.00000,  1.00000,  1,  100.0,  192.130,  57.640
1074,  '1',  57.640,  -0.904,  97.800,  -21.330,  1.01000,  0,  230.560,  0.00000,  0.20960,  0.00000,  0.00000,  1.00000,  1,  100.0,  192.130,  57.640
1075,  '1',  57.640,  -0.875,  97.800,  -21.330,  1.01000,  0,  230.560,  0.00000,  0.12370,  0.00000,  0.00000,  1.00000,  1,  100.0,  192.130,  57.640
1076,  '1',  57.640,  -1.535,  97.800,  -21.330,  1.01000,  0,  230.560,  0.00000,  0.10660,  0.00000,  0.00000,  1.00000,  1,  100.0,  192.130,  57.640
1077,  '1',  57.640,  -1.383,  97.800,  -21.330,  1.01000,  0,  230.560,  0.00000,  0.15380,  0.00000,  0.00000,  1.00000,  1,  100.0,  192.130,  57.640
1081,  '1',  166.170,  11.017,  145.830,  -31.800,  1.01000,  0,  343.800,  0.00000,  0.14960,  0.00000,  0.00000,  1.00000,  1,  100.0,  286.500,  85.950
1082,  '1',  82.190,  -21.600,  31.950,  -21.600,  1.00000,  0,  180.000,  0.00000,  1.00000,  0.00000,  0.00000,  1.00000,  1,  100.0,  150.000,  45.000
1084,  '1',  63.283,  24.600,  24.600,  -16.630,  1.04000,  0,  138.600,  0.00000,  1.00000,  0.00000,  0.00000,  1.00000,  1,  100.0,  115.500,  34.650
1088,  '1',  41.095,  -4.346,  15.970,  -10.800,  1.00000,  0,  90.000,  0.00000,  1.00000,  0.00000,  0.00000,  1.00000,  1,  100.0,  75.000,  22.500
1090,  '1',  39.451,  40.150,  40.150,  -27.140,  1.02000,  0,  226.200,  0.00000,  1.00000,  0.00000,  0.00000,  1.00000,  1,  100.0,  188.500,  56.550
2004,  '1',  117.540,  -35.814,  199.430,  -43.490,  1.02000,  0,  470.160,  0.00000,  0.10640,  0.00000,  0.00000,  1.00000,  1,  100.0,  391.800,  117.540
2005,  '1',  117.540,  -31.077,  199.430,  -43.490,  1.02000,  0,  470.160,  0.00000,  0.22750,  0.00000,  0.00000,  1.00000,  1,  100.0,  391.800,  117.540
2006,  '1',  117.540,  -18.967,  199.430,  -43.490,  1.02000,  0,  470.160,  0.00000,  0.20040,  0.00000,  0.00000,  1.00000,  1,  100.0,  391.800,  117.540
2024,  '1',  50.000,  -18.500,  84.830,  -18.500,  1.02000,  0,  200.000,  0.00000,  0.15080,  0.00000,  0.00000,  1.00000,  1,  100.0,  166.670,  50.000
2057,  '1',  -133.549,  -194.900,  335.520,  -87.840,  0.99000,  0,  864.000,  0.00000,  0.17700,  0.00000,  0.00000,  1.00000,  1,  100.0,  720.000,  216.000
2071,  '1',  50.396,  -20.703,  31.950,  -21.600,  1.00000,  0,  180.000,  0.00000,  1.00000,  0.00000,  0.00000,  1.00000,  1,  100.0,  150.000,  45.000
2078,  '1',  37.799,  -11.869,  23.960,  -16.200,  1.02000,  0,  135.000,  0.00000,  1.00000,  0.00000,  0.00000,  1.00000,  1,  100.0,  112.500,  33.750
2100,  '1',  66.175,  -21.600,  31.950,  -21.600,  1.02000,  0,  180.000,  0.00000,  1.00000,  0.00000,  0.00000,  1.00000,  1,  100.0,  150.000,  45.000
2103,  '1',  80.320,  -29.720,  136.280,  -29.720,  1.00000,  0,  321.280,  0.00000,  0.33430,  0.00000,  0.00000,  1.00000,  1,  100.0,  267.730,  80.320
2104,  '1',  80.320,  -29.720,  136.280,  -29.720,  1.00000,  0,  321.280,  0.00000,  0.31470,  0.00000,  0.00000,  1.00000,  1,  100.0,  267.730,  80.320
2105,  '1',  80.320,  -29.720,  136.280,  -29.720,  1.00000,  0,  321.280,  0.00000,  0.14160,  0.00000,  0.00000,  1.00000,  1,  100.0,  267.730,  80.320
2115,  '1',  107.130,  -20.500,  94.020,  -20.500,  1.00000,  0,  221.660,  0.00000,  0.14250,  0.00000,  0.00000,  1.00000,  1,  100.0,  184.720,  55.410
2116,  '1',  107.130,  -20.500,  94.020,  -20.500,  1.00000,  0,  221.660,  0.00000,  0.18690,  0.00000,  0.00000,  1.00000,  1,  100.0,  184.720,  55.410
2117,  '1',  107.130,  -20.500,  94.020,  -20.500,  1.00000,  0,  221.660,  0.00000,  0.32540,  0.00000,  0.00000,  1.00000,  1,  100.0,  184.720,  55.410
2118,  '1',  107.130,  -20.500,  94.020,  -20.500,  1.00000,  0,  221.660,  0.00000,  0.10610,  0.00000,  0.00000,  1.00000,  1,  100.0,  184.720,  55.410
2119,  '1',  107.130,  -20.500,  94.020,  -20.500,  1.00000,  0,  221.660,  0.00000,  0.13600,  0.00000,  0.00000,  1.00000,  1,  100.0,  184.720,  55.410
2120,  '1',  107.130,  -20.500,  94.020,  -20.500,  1.01000,  0,  221.660,  0.00000,  0.20680,  0.00000,  0.00000,  1.00000,  1,  100.0,  184.720,  55.410
3017,  '1',  92.879,  -9.550,  36.100,  -24.410,  1.01000,  0,  203.400,  0.00000,  1.00000,  0.00000,  0.00000,  1.00000,  1,  100.0,  169.500,  50.850
3020,  '1',  82.190,  -0.076,  31.950,  -21.600,  1.03000,  0,  180.000,  0.00000,  1.00000,  0.00000,  0.00000,  1.00000,  1,  100.0,  150.000,  45.000
3028,  '1',  67.195,  18.113,  42.600,  -28.800,  1.04000,  0,  240.000,  0.00000,  1.00000,  0.00000,  0.00000,  1.00000,  1,  100.0,  200.000,  60.000
3034,  '1',  71.502,  5.666,  27.800,  -18.790,  1.03000,  0,  156.600,  0.00000,  1.00000,  0.00000,  0.00000,  1.00000,  1,  100.0,  130.500,  39.150
3039,  '1',  114.519,  24.222,  44.520,  -30.100,  1.04000,  0,  250.800,  0.00000,  1.00000,  0.00000,  0.00000,  1.00000,  1,  100.0,  209.000,  62.700
3045,  '1',  134.100,  16.311,  227.520,  -49.620,  1.04000,  0,  536.400,  0.00000,  0.14470,  0.00000,  0.00000,  1.00000,  1,  100.0,  447.000,  134.100
3048,  '1',  132.053,  -34.700,  51.330,  -34.700,  1.04000,  0,  289.200,  0.00000,  1.00000,  0.00000,  0.00000,  1.00000,  1,  100.0,  241.000,  72.300
3055,  '1',  134.339,  23.373,  52.220,  -35.300,  1.04000,  0,  294.200,  0.00000,  1.00000,  0.00000,  0.00000,  1.00000,  1,  100.0,  245.170,  73.550
3056,  '1',  134.339,  14.912,  52.220,  -35.300,  1.04000,  0,  294.200,  0.00000,  1.00000,  0.00000,  0.00000,  1.00000,  1,  100.0,  245.170,  73.550
3057,  '1',  134.339,  13.756,  52.220,  -35.300,  1.04000,  0,  294.200,  0.00000,  1.00000,  0.00000,  0.00000,  1.00000,  1,  100.0,  245.170,  73.550
3060,  '1',  90.753,  7.148,  35.280,  -23.850,  1.04000,  0,  198.750,  0.00000,  1.00000,  0.00000,  0.00000,  1.00000,  1,  100.0,  165.630,  49.690
3061,  '1',  90.753,  7.828,  35.280,  -23.850,  1.04000,  0,  198.750,  0.00000,  1.00000,  0.00000,  0.00000,  1.00000,  1,  100.0,  165.630,  49.690
3062,  '1',  90.753,  11.278,  35.280,  -23.850,  1.04000,  0,  198.750,  0.00000,  1.00000,  0.00000,  0.00000,  1.00000,  1,  100.0,  165.630,  49.690
3063,  '1',  90.753,  8.376,  35.280,  -23.850,  1.04000,  0,  198.750,  0.00000,  1.00000,  0.00000,  0.00000,  1.00000,  1,  100.0,  165.630,  49.690
3065,  '1',  44.105,  -11.590,  17.150,  -11.590,  1.00000,  0,  96.600,  0.00000,  1.00000,  0.00000,  0.00000,  1.00000,  1,  100.0,  80.500,  24.150
3068,  '1',  82.190,  19.332,  31.950,  -21.600,  1.04000,  0,  180.000,  0.00000,  1.00000,  0.00000,  0.00000,  1.00000,  1,  100.0,  150.000,  45.000
3071,  '1',  93.259,  -24.510,  36.250,  -24.510,  1.00000,  0,  204.240,  0.00000,  1.00000,  0.00000,  0.00000,  1.00000,  1,  100.0,  170.200,  51.060
3074,  '1',  54.684,  -3.830,  21.260,  -14.370,  1.00000,  0,  119.760,  0.00000,  1.00000,  0.00000,  0.00000,  1.00000,  1,  100.0,  99.800,  29.940
3081,  '1',  136.436,  15.977,  53.040,  -35.860,  1.04000,  0,  298.800,  0.00000,  1.00000,  0.00000,  0.00000,  1.00000,  1,  100.0,  249.000,  74.700
3084,  '1',  127.392,  -22.802,  49.520,  -33.480,  1.00000,  0,  279.000,  0.00000,  1.00000,  0.00000,  0.00000,  1.00000,  1,  100.0,  232.500,  69.750
3086,  '1',  41.095,  -10.800,  15.970,  -10.800,  1.00000,  0,  90.000,  0.00000,  1.00000,  0.00000,  0.00000,  1.00000,  1,  100.0,  75.000,  22.500
3087,  '1',  54.794,  -10.800,  15.970,  -10.800,  1.00000,  0,  90.000,  0.00000,  1.00000,  0.00000,  0.00000,  1.00000,  1,  100.0,  75.000,  22.500
3092,  '1',  109.587,  15.057,  42.600,  -28.800,  1.04000,  0,  240.000,  0.00000,  1.00000,  0.00000,  0.00000,  1.00000,  1,  100.0,  200.000,  60.000
3095,  '1',  66.081,  7.538,  25.690,  -17.370,  1.04000,  0,  144.720,  0.00000,  1.00000,  0.00000,  0.00000,  1.00000,  1,  100.0,  120.600,  36.180
3098,  '1',  87.670,  11.789,  34.080,  -23.040,  1.04000,  0,  192.000,  0.00000,  1.00000,  0.00000,  0.00000,  1.00000,  1,  100.0,  160.000,  48.000
3106,  '1',  13.244,  -13.503,  62.477,  -2.690,  1.00000,  0,  65.880,  0.00000,  0.29220,  0.00000,  0.00000,  1.00000,  1,  100.0,  162.800,  0.000
3110,  '1',  46.027,  8.604,  17.890,  -12.100,  1.04000,  0,  100.800,  0.00000,  1.00000,  0.00000,  0.00000,  1.00000,  1,  100.0,  84.000,  25.200
3112,  '1',  40.986,  -10.770,  15.930,  -10.770,  1.00000,  0,  89.760,  0.00000,  1.00000,  0.00000,  0.00000,  1.00000,  1,  100.0,  74.800,  22.440
3113,  '1',  40.986,  -10.770,  15.930,  -10.770,  1.00000,  0,  89.760,  0.00000,  1.00000,  0.00000,  0.00000,  1.00000,  1,  100.0,  74.800,  22.440
3117,  '1',  34.520,  -9.070,  13.420,  -9.070,  1.00000,  0,  75.600,  0.00000,  1.00000,  0.00000,  0.00000,  1.00000,  1,  100.0,  63.000,  18.900
3118,  '1',  65.752,  -14.977,  25.560,  -17.280,  1.00000,  0,  144.000,  0.00000,  1.00000,  0.00000,  0.00000,  1.00000,  1,  100.0,  120.000,  36.000
3122,  '1',  107.943,  -18.649,  41.960,  -28.370,  1.00000,  0,  236.400,  0.00000,  1.00000,  0.00000,  0.00000,  1.00000,  1,  100.0,  197.000,  59.100
3127,  '1',  73.971,  -19.440,  28.760,  -19.440,  1.00000,  0,  162.000,  0.00000,  1.00000,  0.00000,  0.00000,  1.00000,  1,  100.0,  135.000,  40.500
3129,  '1',  69.318,  -18.220,  26.940,  -18.220,  1.00000,  0,  151.800,  0.00000,  1.00000,  0.00000,  0.00000,  1.00000,  1,  100.0,  126.500,  37.950
3131,  '1',  62.465,  -8.716,  24.280,  -16.420,  1.02000,  0,  136.800,  0.00000,  1.00000,  0.00000,  0.00000,  1.00000,  1,  100.0,  114.000,  34.200
3137,  '1',  55.451,  21.560,  21.560,  -14.570,  1.03000,  0,  121.440,  0.00000,  1.00000,  0.00000,  0.00000,  1.00000,  1,  100.0,  101.200,  30.360
3141,  '1',  50.133,  -13.180,  19.490,  -13.180,  1.00000,  0,  109.800,  0.00000,  1.00000,  0.00000,  0.00000,  1.00000,  1,  100.0,  91.500,  27.450
4010,  '1',  110.464,  2.747,  42.940,  -29.030,  1.03000,  0,  241.920,  0.00000,  1.00000,  0.00000,  0.00000,  1.00000,  1,  100.0,  201.600,  60.480
4026,  '1',  123.000,  8.384,  191.060,  -50.020,  1.03000,  0,  492.000,  0.00000,  0.32770,  0.00000,  0.00000,  1.00000,  1,  100.0,  410.000,  123.000
4030,  '1',  380.953,  2.110,  290.040,  -75.930,  1.01000,  0,  746.880,  0.00000,  0.27970,  0.00000,  0.00000,  1.00000,  1,  100.0,  622.400,  186.720
4050,  '1',  109.587,  -28.800,  42.600,  -28.800,  1.00000,  0,  240.000,  0.00000,  1.00000,  0.00000,  0.00000,  1.00000,  1,  100.0,  200.000,  60.000
4058,  '1',  43.200,  11.876,  73.300,  -15.980,  1.03000,  0,  172.800,  0.00000,  0.13700,  0.00000,  0.00000,  1.00000,  1,  100.0,  144.000,  43.200
4059,  '1',  43.200,  13.326,  73.300,  -15.980,  1.03000,  0,  172.800,  0.00000,  0.15140,  0.00000,  0.00000,  1.00000,  1,  100.0,  144.000,  43.200
4060,  '1',  43.200,  8.219,  73.300,  -15.980,  1.03000,  0,  172.800,  0.00000,  0.13940,  0.00000,  0.00000,  1.00000,  1,  100.0,  144.000,  43.200
4061,  '1',  51.700,  11.953,  87.720,  -19.130,  1.03000,  0,  206.800,  0.00000,  0.21560,  0.00000,  0.00000,  1.00000,  1,  100.0,  172.330,  51.700
4062,  '1',  51.700,  8.883,  87.720,  -19.130,  1.03000,  0,  206.800,  0.00000,  0.25930,  0.00000,  0.00000,  1.00000,  1,  100.0,  172.330,  51.700
4063,  '1',  51.700,  12.410,  87.720,  -19.130,  1.03000,  0,  206.800,  0.00000,  0.14410,  0.00000,  0.00000,  1.00000,  1,  100.0,  172.330,  51.700
4082,  '1',  141.170,  15.064,  123.890,  -27.020,  1.04000,  0,  292.080,  0.00000,  0.13810,  0.00000,  0.00000,  1.00000,  1,  100.0,  243.400,  73.020
4083,  '1',  141.170,  15.889,  123.890,  -27.020,  1.04000,  0,  292.080,  0.00000,  0.15700,  0.00000,  0.00000,  1.00000,  1,  100.0,  243.400,  73.020
4084,  '1',  141.170,  27.600,  123.890,  -27.020,  1.04000,  0,  292.080,  0.00000,  0.19110,  0.00000,  0.00000,  1.00000,  1,  100.0,  243.400,  73.020
4085,  '1',  204.160,  31.123,  179.170,  -39.070,  1.04000,  0,  422.400,  0.00000,  0.31920,  0.00000,  0.00000,  1.00000,  1,  100.0,  352.000,  105.600
4105,  '1',  60.475,  2.868,  38.340,  -25.920,  1.01000,  0,  216.000,  0.00000,  1.00000,  0.00000,  0.00000,  1.00000,  1,  100.0,  180.000,  54.000
4115,  '1',  39.540,  24.114,  67.090,  -14.630,  1.04000,  0,  158.160,  0.00000,  0.11310,  0.00000,  0.00000,  1.00000,  1,  100.0,  131.800,  39.540
4116,  '1',  39.540,  22.534,  67.090,  -14.630,  1.04000,  0,  158.160,  0.00000,  0.15150,  0.00000,  0.00000,  1.00000,  1,  100.0,  131.800,  39.540
4142,  '1',  103.012,  20.212,  40.040,  -27.070,  1.04000,  0,  225.600,  0.00000,  1.00000,  0.00000,  0.00000,  1.00000,  1,  100.0,  188.000,  56.400
4153,  '1',  155.176,  44.843,  60.320,  -40.780,  1.04000,  0,  339.840,  0.00000,  1.00000,  0.00000,  0.00000,  1.00000,  1,  100.0,  283.200,  84.960
4160,  '1',  114.710,  35.544,  100.660,  -21.950,  1.03000,  0,  237.320,  0.00000,  0.18820,  0.00000,  0.00000,  1.00000,  1,  100.0,  197.770,  59.330
4161,  '1',  114.710,  16.932,  100.660,  -21.950,  1.03000,  0,  237.320,  0.00000,  0.12390,  0.00000,  0.00000,  1.00000,  1,  100.0,  197.770,  59.330
4162,  '1',  114.710,  14.668,  100.660,  -21.950,  1.03000,  0,  237.320,  0.00000,  0.17220,  0.00000,  0.00000,  1.00000,  1,  100.0,  197.770,  59.330
4166,  '1',  110.135,  -28.940,  42.810,  -28.940,  1.00000,  0,  241.200,  0.00000,  1.00000,  0.00000,  0.00000,  1.00000,  1,  100.0,  201.000,  60.300
4177,  '1',  82.190,  0.275,  31.950,  -21.600,  1.04000,  0,  180.000,  0.00000,  1.00000,  0.00000,  0.00000,  1.00000,  1,  100.0,  150.000,  45.000
4181,  '1',  67.226,  42.620,  42.620,  -28.810,  1.04000,  0,  240.120,  0.00000,  1.00000,  0.00000,  0.00000,  1.00000,  1,  100.0,  200.100,  60.030
4183,  '1',  111.231,  43.240,  43.240,  -29.230,  1.03000,  0,  243.600,  0.00000,  1.00000,  0.00000,  0.00000,  1.00000,  1,  100.0,  203.000,  60.900
4192,  '1',  784.350,  36.834,  688.320,  -150.120,  1.02000,  0,  1622.76,  0.00000,  0.14340,  0.00000,  0.00000,  1.00000,  1,  100.0,  1352.31,  405.690
4194,  '1',  110.464,  42.940,  42.940,  -29.030,  1.02000,  0,  241.920,  0.00000,  1.00000,  0.00000,  0.00000,  1.00000,  1,  100.0,  201.600,  60.480
4195,  '1',  50.410,  -13.250,  19.600,  -13.250,  1.00000,  0,  110.400,  0.00000,  1.00000,  0.00000,  0.00000,  1.00000,  1,  100.0,  92.000,  27.600
5020,  '1',  40.317,  -17.280,  25.560,  -17.280,  1.00000,  0,  144.000,  0.00000,  1.00000,  0.00000,  0.00000,  1.00000,  1,  100.0,  120.000,  36.000
5037,  '1',  222.100,  -34.240,  157.010,  -34.240,  1.02000,  0,  370.160,  0.00000,  0.29910,  0.00000,  0.00000,  1.00000,  1,  100.0,  308.470,  92.540
5038,  '1',  222.100,  -34.240,  157.010,  -34.240,  1.02000,  0,  370.160,  0.00000,  0.12330,  0.00000,  0.00000,  1.00000,  1,  100.0,  308.470,  92.540
5039,  '1',  222.100,  -34.240,  157.010,  -34.240,  1.02000,  0,  370.160,  0.00000,  0.21470,  0.00000,  0.00000,  1.00000,  1,  100.0,  308.470,  92.540
5040,  '1',  222.100,  -32.296,  157.010,  -34.240,  1.02000,  0,  370.160,  0.00000,  0.19240,  0.00000,  0.00000,  1.00000,  1,  100.0,  308.470,  92.540
5041,  '1',  222.100,  -34.240,  157.010,  -34.240,  1.02000,  0,  370.160,  0.00000,  0.11590,  0.00000,  0.00000,  1.00000,  1,  100.0,  308.470,  92.540
5042,  '1',  222.100,  -34.240,  157.010,  -34.240,  1.02000,  0,  370.160,  0.00000,  0.19130,  0.00000,  0.00000,  1.00000,  1,  100.0,  308.470,  92.540
5057,  '1',  228.450,  -35.230,  161.530,  -35.230,  1.00000,  0,  380.820,  0.00000,  0.19130,  0.00000,  0.00000,  1.00000,  1,  100.0,  317.350,  95.200
5058,  '1',  228.490,  -35.230,  161.530,  -35.230,  1.00000,  0,  380.820,  0.00000,  0.29820,  0.00000,  0.00000,  1.00000,  1,  100.0,  317.350,  95.200
5067,  '1',  315.550,  8.065,  223.080,  -48.650,  1.03000,  0,  525.920,  0.00000,  0.32610,  0.00000,  0.00000,  1.00000,  1,  100.0,  438.270,  131.480
5068,  '1',  315.550,  6.502,  223.080,  -48.650,  1.03000,  0,  525.920,  0.00000,  0.11690,  0.00000,  0.00000,  1.00000,  1,  100.0,  438.270,  131.480
5069,  '1',  315.550,  5.718,  223.080,  -48.650,  1.03000,  0,  525.920,  0.00000,  0.10560,  0.00000,  0.00000,  1.00000,  1,  100.0,  438.270,  131.480
5166,  '1',  37.950,  31.198,  64.390,  -14.040,  1.04000,  0,  151.800,  0.00000,  0.13910,  0.00000,  0.00000,  1.00000,  1,  100.0,  126.500,  37.950
5198,  '1',  50.396,  -21.600,  31.950,  -21.600,  1.00000,  0,  180.000,  0.00000,  1.00000,  0.00000,  0.00000,  1.00000,  1,  100.0,  150.000,  45.000
5206,  '1',  144.230,  -27.600,  126.570,  -27.600,  1.01000,  0,  298.400,  0.00000,  0.11980,  0.00000,  0.00000,  1.00000,  1,  100.0,  248.670,  74.600
5207,  '1',  144.230,  -27.600,  126.570,  -27.600,  1.01000,  0,  298.400,  0.00000,  0.18090,  0.00000,  0.00000,  1.00000,  1,  100.0,  248.670,  74.600
5208,  '1',  144.230,  -27.600,  126.570,  -27.600,  1.01000,  0,  298.400,  0.00000,  0.10560,  0.00000,  0.00000,  1.00000,  1,  100.0,  248.670,  74.600
5238,  '1',  75.594,  -32.400,  47.930,  -32.400,  1.00000,  0,  270.000,  0.00000,  1.00000,  0.00000,  0.00000,  1.00000,  1,  100.0,  225.000,  67.500
5243,  '1',  50.396,  -21.600,  31.950,  -21.600,  1.00000,  0,  180.000,  0.00000,  1.00000,  0.00000,  0.00000,  1.00000,  1,  100.0,  150.000,  45.000
5262,  '1',  1215.000,  -99.630,  447.120,  -99.630,  1.01000,  0,  1458.00,  0.00000,  0.26310,  0.00000,  0.00000,  1.00000,  1,  100.0,  1215.00,  364.500
5263,  '1',  1215.000,  -99.630,  447.120,  -99.630,  1.01000,  0,  1458.00,  0.00000,  0.16260,  0.00000,  0.00000,  1.00000,  1,  100.0,  1215.00,  364.500
5281,  '1',  80.320,  -29.720,  136.280,  -29.720,  1.00000,  0,  321.280,  0.00000,  0.10660,  0.00000,  0.00000,  1.00000,  1,  100.0,  267.730,  80.320
5282,  '1',  80.320,  -29.720,  136.280,  -29.720,  1.00000,  0,  321.280,  0.00000,  0.23940,  0.00000,  0.00000,  1.00000,  1,  100.0,  267.730,  80.320
5283,  '1',  80.320,  -29.720,  136.280,  -29.720,  1.00000,  0,  321.280,  0.00000,  0.10650,  0.00000,  0.00000,  1.00000,  1,  100.0,  267.730,  80.320
5302,  '1',  139.130,  56.188,  236.050,  -51.480,  1.04000,  0,  556.500,  0.00000,  0.13300,  0.00000,  0.00000,  1.00000,  1,  100.0,  463.750,  139.130
5303,  '1',  139.130,  75.771,  236.050,  -51.480,  1.04000,  0,  556.500,  0.00000,  0.17920,  0.00000,  0.00000,  1.00000,  1,  100.0,  463.750,  139.130
5319,  '1',  78.840,  -29.170,  133.770,  -29.170,  1.01000,  0,  315.360,  0.00000,  0.25070,  0.00000,  0.00000,  1.00000,  1,  100.0,  262.800,  78.840
5320,  '1',  78.840,  -29.170,  133.770,  -29.170,  1.01000,  0,  315.360,  0.00000,  0.28140,  0.00000,  0.00000,  1.00000,  1,  100.0,  262.800,  78.840
5321,  '1',  78.840,  -29.170,  133.770,  -29.170,  1.01000,  0,  315.360,  0.00000,  0.12810,  0.00000,  0.00000,  1.00000,  1,  100.0,  262.800,  78.840
5324,  '1',  204.530,  47.861,  144.590,  -31.530,  1.04000,  0,  340.880,  0.00000,  0.21670,  0.00000,  0.00000,  1.00000,  1,  100.0,  284.070,  85.220
5325,  '1',  204.530,  49.336,  144.590,  -31.530,  1.04000,  0,  340.880,  0.00000,  0.15030,  0.00000,  0.00000,  1.00000,  1,  100.0,  284.070,  85.220
5326,  '1',  204.530,  135.580,  144.590,  -31.530,  1.04000,  0,  340.880,  0.00000,  0.18810,  0.00000,  0.00000,  1.00000,  1,  100.0,  284.070,  85.220
5360,  '1',  274.890,  -129.901,  469.730,  -122.980,  1.01000,  0,  1209.60,  0.00000,  0.25510,  0.00000,  0.00000,  1.00000,  1,  100.0,  1008.00,  302.400
5364,  '1',  123.730,  -23.680,  108.590,  -23.680,  1.00000,  0,  256.000,  0.00000,  0.13030,  0.00000,  0.00000,  1.00000,  1,  100.0,  213.330,  64.000
5365,  '1',  123.730,  -23.680,  108.590,  -23.680,  1.00000,  0,  256.000,  0.00000,  0.11650,  0.00000,  0.00000,  1.00000,  1,  100.0,  213.330,  64.000
5366,  '1',  123.730,  -23.680,  108.590,  -23.680,  1.00000,  0,  256.000,  0.00000,  0.15490,  0.00000,  0.00000,  1.00000,  1,  100.0,  213.330,  64.000
5367,  '1',  123.730,  -23.680,  108.590,  -23.680,  1.00000,  0,  256.000,  0.00000,  0.10020,  0.00000,  0.00000,  1.00000,  1,  100.0,  213.330,  64.000
5368,  '1',  123.730,  -23.680,  108.590,  -23.680,  1.00000,  0,  256.000,  0.00000,  0.36180,  0.00000,  0.00000,  1.00000,  1,  100.0,  213.330,  64.000
5369,  '1',  123.730,  -23.680,  108.590,  -23.680,  1.00000,  0,  256.000,  0.00000,  0.24440,  0.00000,  0.00000,  1.00000,  1,  100.0,  213.330,  64.000
5382,  '1',  150.480,  77.817,  106.380,  -23.200,  1.04000,  0,  250.800,  0.00000,  0.24770,  0.00000,  0.00000,  1.00000,  1,  100.0,  209.000,  62.700
5383,  '1',  150.480,  68.515,  106.380,  -23.200,  1.04000,  0,  250.800,  0.00000,  0.39820,  0.00000,  0.00000,  1.00000,  1,  100.0,  209.000,  62.700
5399,  '1',  55.637,  28.835,  35.270,  -23.850,  1.04000,  0,  198.720,  0.00000,  1.00000,  0.00000,  0.00000,  1.00000,  1,  100.0,  165.600,  49.680
5415,  '1',  36.600,  -13.540,  62.100,  -13.540,  1.00000,  0,  146.400,  0.00000,  0.14030,  0.00000,  0.00000,  1.00000,  1,  100.0,  122.000,  36.600
5416,  '1',  36.600,  -13.540,  62.100,  -13.540,  1.00000,  0,  146.400,  0.00000,  0.26480,  0.00000,  0.00000,  1.00000,  1,  100.0,  122.000,  36.600
5417,  '1',  36.600,  -13.540,  62.100,  -13.540,  1.00000,  0,  146.400,  0.00000,  0.16960,  0.00000,  0.00000,  1.00000,  1,  100.0,  122.000,  36.600
5418,  '1',  35.640,  -13.190,  60.470,  -13.190,  1.00000,  0,  142.560,  0.00000,  0.34000,  0.00000,  0.00000,  1.00000,  1,  100.0,  118.800,  35.640
5419,  '1',  35.640,  -13.190,  60.470,  -13.190,  1.00000,  0,  142.560,  0.00000,  0.16420,  0.00000,  0.00000,  1.00000,  1,  100.0,  118.800,  35.640
5444,  '1',  604.980,  -223.840,  1026.440,  -223.840,  1.01000,  0,  2419.92,  0.00000,  0.34260,  0.00000,  0.00000,  1.00000,  1,  100.0,  2016.60,  604.980
6006,  '1',  123.540,  7.962,  108.420,  -23.640,  1.04000,  0,  255.600,  0.00000,  0.18770,  0.00000,  0.00000,  1.00000,  1,  100.0,  213.000,  63.900
6007,  '1',  306.720,  13.575,  216.830,  -47.290,  1.04000,  0,  511.200,  0.00000,  0.13420,  0.00000,  0.00000,  1.00000,  1,  100.0,  426.000,  127.800
6008,  '1',  115.030,  7.511,  100.950,  -22.010,  1.04000,  0,  238.000,  0.00000,  0.20160,  0.00000,  0.00000,  1.00000,  1,  100.0,  198.330,  59.500
6009,  '1',  115.030,  4.775,  100.950,  -22.010,  1.04000,  0,  238.000,  0.00000,  0.18430,  0.00000,  0.00000,  1.00000,  1,  100.0,  198.330,  59.500
6010,  '1',  115.030,  5.693,  100.950,  -22.010,  1.04000,  0,  238.000,  0.00000,  0.15620,  0.00000,  0.00000,  1.00000,  1,  100.0,  198.330,  59.500
6042,  '1',  38.159,  6.818,  122.908,  -5.290,  1.04000,  0,  129.600,  0.00000,  0.18770,  0.00000,  0.00000,  1.00000,  1,  100.0,  320.200,  0.000
6069,  '1',  54.410,  -12.309,  92.320,  -20.130,  1.03000,  0,  217.640,  0.00000,  0.22480,  0.00000,  0.00000,  1.00000,  1,  100.0,  181.370,  54.410
6070,  '1',  54.410,  -5.127,  92.320,  -20.130,  1.03000,  0,  217.640,  0.00000,  0.24660,  0.00000,  0.00000,  1.00000,  1,  100.0,  181.370,  54.410
6071,  '1',  54.410,  -15.028,  92.320,  -20.130,  1.03000,  0,  217.640,  0.00000,  0.15280,  0.00000,  0.00000,  1.00000,  1,  100.0,  181.370,  54.410
6072,  '1',  54.410,  -5.997,  92.320,  -20.130,  1.03000,  0,  217.640,  0.00000,  0.19250,  0.00000,  0.00000,  1.00000,  1,  100.0,  181.370,  54.410
6073,  '1',  54.410,  -9.258,  92.320,  -20.130,  1.03000,  0,  217.640,  0.00000,  0.14260,  0.00000,  0.00000,  1.00000,  1,  100.0,  181.370,  54.410
6074,  '1',  54.410,  -9.682,  92.320,  -20.130,  1.03000,  0,  217.640,  0.00000,  0.11150,  0.00000,  0.00000,  1.00000,  1,  100.0,  181.370,  54.410
6078,  '1',  169.000,  -68.730,  262.510,  -68.730,  1.00000,  0,  676.000,  0.00000,  0.28900,  0.00000,  0.00000,  1.00000,  1,  100.0,  563.330,  169.000
6079,  '1',  169.000,  -68.730,  262.510,  -68.730,  1.00000,  0,  676.000,  0.00000,  0.25330,  0.00000,  0.00000,  1.00000,  1,  100.0,  563.330,  169.000
6080,  '1',  169.000,  -68.730,  262.510,  -68.730,  1.00000,  0,  676.000,  0.00000,  0.32510,  0.00000,  0.00000,  1.00000,  1,  100.0,  563.330,  169.000
6106,  '1',  36.300,  61.590,  61.590,  -13.430,  1.04000,  0,  145.200,  0.00000,  0.12010,  0.00000,  0.00000,  1.00000,  1,  100.0,  121.000,  36.300
6110,  '1',  177.180,  20.779,  275.220,  -72.050,  1.04000,  0,  708.720,  0.00000,  0.16800,  0.00000,  0.00000,  1.00000,  1,  100.0,  590.600,  177.180
6111,  '1',  198.450,  21.225,  308.260,  -80.700,  1.04000,  0,  793.800,  0.00000,  0.21900,  0.00000,  0.00000,  1.00000,  1,  100.0,  661.500,  198.450
6145,  '1',  321.120,  -4.039,  227.010,  -49.510,  1.03000,  0,  535.200,  0.00000,  0.14770,  0.00000,  0.00000,  1.00000,  1,  100.0,  446.000,  133.800
6146,  '1',  321.120,  -4.283,  227.010,  -49.510,  1.03000,  0,  535.200,  0.00000,  0.11950,  0.00000,  0.00000,  1.00000,  1,  100.0,  446.000,  133.800
6147,  '1',  512.383,  2.180,  474.390,  -103.450,  1.03000,  0,  1118.40,  0.00000,  0.10440,  0.00000,  0.00000,  1.00000,  1,  100.0,  932.000,  279.600
6148,  '1',  216.600,  -16.457,  367.500,  -80.140,  1.03000,  0,  866.400,  0.00000,  0.23830,  0.00000,  0.00000,  1.00000,  1,  100.0,  722.000,  216.600
6149,  '1',  216.600,  -30.487,  367.500,  -80.140,  1.03000,  0,  866.400,  0.00000,  0.12770,  0.00000,  0.00000,  1.00000,  1,  100.0,  722.000,  216.600
6164,  '1',  136.330,  -0.912,  119.640,  -26.090,  1.03000,  0,  282.060,  0.00000,  0.30070,  0.00000,  0.00000,  1.00000,  1,  100.0,  235.050,  70.520
6165,  '1',  136.330,  -1.395,  119.640,  -26.090,  1.03000,  0,  282.060,  0.00000,  0.18390,  0.00000,  0.00000,  1.00000,  1,  100.0,  235.050,  70.520
6166,  '1',  136.330,  -2.419,  119.640,  -26.090,  1.03000,  0,  282.060,  0.00000,  0.25100,  0.00000,  0.00000,  1.00000,  1,  100.0,  235.050,  70.520
6167,  '1',  136.330,  -1.242,  119.640,  -26.090,  1.03000,  0,  282.060,  0.00000,  0.13970,  0.00000,  0.00000,  1.00000,  1,  100.0,  235.050,  70.520
6214,  '1',  65.818,  -5.328,  212.059,  -9.130,  1.04000,  0,  223.600,  0.00000,  0.21900,  0.00000,  0.00000,  1.00000,  1,  100.0,  552.300,  0.000
6215,  '1',  65.818,  -9.130,  212.059,  -9.130,  1.04000,  0,  223.600,  0.00000,  0.20110,  0.00000,  0.00000,  1.00000,  1,  100.0,  552.300,  0.000
6216,  '1',  65.818,  -8.890,  212.059,  -9.130,  1.04000,  0,  223.600,  0.00000,  0.37760,  0.00000,  0.00000,  1.00000,  1,  100.0,  552.300,  0.000
6243,  '1',  106.140,  23.440,  93.150,  -20.310,  1.04000,  0,  219.600,  0.00000,  0.28800,  0.00000,  0.00000,  1.00000,  1,  100.0,  183.000,  54.900
6244,  '1',  214.560,  28.403,  151.680,  -33.080,  1.04000,  0,  357.600,  0.00000,  0.12500,  0.00000,  0.00000,  1.00000,  1,  100.0,  298.000,  89.400
6245,  '1',  214.560,  32.902,  151.680,  -33.080,  1.04000,  0,  357.600,  0.00000,  0.24960,  0.00000,  0.00000,  1.00000,  1,  100.0,  298.000,  89.400
6246,  '1',  214.560,  62.798,  151.680,  -33.080,  1.04000,  0,  357.600,  0.00000,  0.16990,  0.00000,  0.00000,  1.00000,  1,  100.0,  298.000,  89.400
6247,  '1',  106.330,  51.721,  93.320,  -20.350,  1.04000,  0,  220.000,  0.00000,  0.11730,  0.00000,  0.00000,  1.00000,  1,  100.0,  183.330,  55.000
6248,  '1',  106.330,  26.084,  93.320,  -20.350,  1.04000,  0,  220.000,  0.00000,  0.27550,  0.00000,  0.00000,  1.00000,  1,  100.0,  183.330,  55.000
6249,  '1',  106.330,  17.537,  93.320,  -20.350,  1.04000,  0,  220.000,  0.00000,  0.17480,  0.00000,  0.00000,  1.00000,  1,  100.0,  183.330,  55.000
6257,  '1',  112.520,  -21.530,  98.750,  -21.530,  1.02000,  0,  232.800,  0.00000,  0.15520,  0.00000,  0.00000,  1.00000,  1,  100.0,  194.000,  58.200
6258,  '1',  112.520,  -21.530,  98.750,  -21.530,  1.02000,  0,  232.800,  0.00000,  0.26310,  0.00000,  0.00000,  1.00000,  1,  100.0,  194.000,  58.200
6260,  '1',  149.060,  -28.530,  130.810,  -28.530,  1.02000,  0,  308.400,  0.00000,  0.11970,  0.00000,  0.00000,  1.00000,  1,  100.0,  257.000,  77.100
6295,  '1',  119.610,  -22.890,  104.970,  -22.890,  1.02000,  0,  247.480,  0.00000,  0.21970,  0.00000,  0.00000,  1.00000,  1,  100.0,  206.230,  61.870
6296,  '1',  119.610,  -22.890,  104.970,  -22.890,  1.02000,  0,  247.480,  0.00000,  0.25670,  0.00000,  0.00000,  1.00000,  1,  100.0,  206.230,  61.870
...
 0 /End of Generator data, Begin Branch data
1004,  1023,  '99',  0.01104,  0.34355,  0.00000,  0.00,  0.00,  0.00,  0.00000,  0.000,  0.00000,  0.00000,  0.00000,  0.00000,  1
1004,  1057,  '99',  0.63352,  4.20369,  0.00000,  0.00,  0.00,  0.00,  0.00000,  0.000,  0.00000,  0.00000,  0.00000,  0.00000,  1
1004,  2057,  '99',  0.63621,  1.83462,  0.00000,  0.00,  0.00,  0.00,  0.00000,  0.000,  0.00000,  0.00000,  0.00000,  0.00000,  1
1004,  2100,  '99',  0.01298,  0.46221,  0.00000,  0.00,  0.00,  0.00,  0.00000,  0.000,  0.00000,  0.00000,  0.00000,  0.00000,  1
1004,  3034,  '99',  0.40215,  3.06931,  0.00000,  0.00,  0.00,  0.00,  0.00000,  0.000,  0.00000,  0.00000,  0.00000,  0.00000,  1
1004,  3039,  '99',  0.03251,  0.33545,  0.00000,  0.00,  0.00,  0.00,  0.00000,  0.000,  0.00000,  0.00000,  0.00000,  0.00000,  1
1004,  3048,  '99',  0.04551,  0.32925,  0.00000,  0.00,  0.00,  0.00,  0.00000,  0.000,  0.00000,  0.00000,  0.00000,  0.00000,  1
1004,  3081,  '99',  0.03966,  0.42456,  0.00000,  0.00,  0.00,  0.00,  0.00000,  0.000,  0.00000,  0.00000,  0.00000,  0.00000,  1
1004,  3086,  '99',  0.54478,  3.94110,  0.00000,  0.00,  0.00,  0.00,  0.00000,  0.000,  0.00000,  0.00000,  0.00000,  0.00000,  1
1004,  3087,  '99',  0.54478,  3.94110,  0.00000,  0.00,  0.00,  0.00,  0.00000,  0.000,  0.00000,  0.00000,  0.00000,  0.00000,  1
1004,  3098,  '99',  0.02739,  0.45834,  0.00000,  0.00,  0.00,  0.00,  0.00000,  0.000,  0.00000,  0.00000,  0.00000,  0.00000,  1
1004,  3110,  '99',  0.06026,  0.50580,  0.00000,  0.00,  0.00,  0.00,  0.00000,  0.000,  0.00000,  0.00000,  0.00000,  0.00000,  1
1004,  3117,  '99',  0.40074,  3.95379,  0.00000,  0.00,  0.00,  0.00,  0.00000,  0.000,  0.00000,  0.00000,  0.00000,  0.00000,  1
1004,  3118,  '99',  0.33788,  2.72451,  0.00000,  0.00,  0.00,  0.00,  0.00000,  0.000,  0.00000,  0.00000,  0.00000,  0.00000,  1
1004,  3129,  '99',  1.37973,  4.34829,  0.00000,  0.00,  0.00,  0.00,  0.00000,  0.000,  0.00000,  0.00000,  0.00000,  0.00000,  1
1004,  5238,  '99',  1.44496,  4.23928,  0.00000,  0.00,  0.00,  0.00,  0.00000,  0.000,  0.00000,  0.00000,  0.00000,  0.00000,  1
1004,  5399,  '99',  0.79254,  4.41095,  0.00000,  0.00,  0.00,  0.00,  0.00000,  0.000,  0.00000,  0.00000,  0.00000,  0.00000,  1
1009,  1033,  '99',  0.07919,  0.70853,  0.00000,  0.00,  0.00,  0.00,  0.00000,  0.000,  0.00000,  0.00000,  0.00000,  0.00000,  1
1009,  1039,  '99',  1.38894,  4.73554,  0.00000,  0.00,  0.00,  0.00,  0.00000,  0.000,  0.00000,  0.00000,  0.00000,  0.00000,  1
1009,  1070,  '99',  -0.00818,  0.40197,  0.00000,  0.00,  0.00,  0.00,  0.00000,  0.000,  0.00000,  0.00000,  0.00000,  0.00000,  1
1009,  1082,  '99',  0.09852,  0.46291,  0.00000,  0.00,  0.00,  0.00,  0.00000,  0.000,  0.00000,  0.00000,  0.00000,  0.00000,  1
1009,  1088,  '99',  0.64247,  2.67073,  0.00000,  0.00,  0.00,  0.00,  0.00000,  0.000,  0.00000,  0.00000,  0.00000,  0.00000,  1
1021,  1026,  '99',  0.01313,  0.82405,  0.00000,  0.00,  0.00,  0.00,  0.00000,  0.000,  0.00000,  0.00000,  0.00000,  0.00000,  1
1021,  1035,  '99',  0.75730,  4.70181,  0.00000,  0.00,  0.00,  0.00,  0.00000,  0.000,  0.00000,  0.00000,  0.00000,  0.00000,  1
1021,  1084,  '99',  0.01192,  0.19547,  0.00000,  0.00,  0.00,  0.00,  0.00000,  0.000,  0.00000,  0.00000,  0.00000,  0.00000,  1
1021,  3048,  '99',  0.54807,  4.66493,  0.00000,  0.00,  0.00,  0.00,  0.00000,  0.000,  0.00000,  0.00000,  0.00000,  0.00000,  1
1021,  3112,  '99',  0.45107,  2.36439,  0.00000,  0.00,  0.00,  0.00,  0.00000,  0.000,  0.00000,  0.00000,  0.00000,  0.00000,  1
1021,  3113,  '99',  0.45107,  2.36439,  0.00000,  0.00,  0.00,  0.00,  0.00000,  0.000,  0.00000,  0.00000,  0.00000,  0.00000,  1
1023,  2100,  '99',  -0.09991,  3.12063,  0.00000,  0.00,  0.00,  0.00,  0.00000,  0.000,  0.00000,  0.00000,  0.00000,  0.00000,  1
1023,  3098,  '99',  0.00315,  3.02617,  0.00000,  0.00,  0.00,  0.00,  0.00000,  0.000,  0.00000,  0.00000,  0.00000,  0.00000,  1
1023,  3110,  '99',  0.08427,  0.92274,  0.00000,  0.00,  0.00,  0.00,  0.00000,  0.000,  0.00000,  0.00000,  0.00000,  0.00000,  1
1026,  1035,  '99',  0.49972,  3.25709,  0.00000,  0.00,  0.00,  0.00,  0.00000,  0.000,  0.00000,  0.00000,  0.00000,  0.00000,  1
1026,  1042,  '99',  0.52272,  3.61768,  0.00000,  0.00,  0.00,  0.00,  0.00000,  0.000,  0.00000,  0.00000,  0.00000,  0.00000,  1
1026,  1043,  '99',  0.54356,  4.18380,  0.00000,  0.00,  0.00,  0.00,  0.00000,  0.000,  0.00000,  0.00000,  0.00000,  0.00000,  1
1026,  1066,  '99',  0.72653,  4.77071,  0.00000,  0.00,  0.00,  0.00,  0.00000,  0.000,  0.00000,  0.00000,  0.00000,  0.00000,  1
1026,  1084,  '99',  0.07234,  0.49018,  0.00000,  0.00,  0.00,  0.00,  0.00000,  0.000,  0.00000,  0.00000,  0.00000,  0.00000,  1
1033,  1039,  '99',  0.07426,  0.91279,  0.00000,  0.00,  0.00,  0.00,  0.00000,  0.000,  0.00000,  0.00000,  0.00000,  0.00000,  1
1033,  1070,  '99',  0.11898,  0.88304,  0.00000,  0.00,  0.00,  0.00,  0.00000,  0.000,  0.00000,  0.00000,  0.00000,  0.00000,  1
1033,  1081,  '99',  0.00300,  0.03093,  0.00000,  0.00,  0.00,  0.00,  0.00000,  0.000,  0.00000,  0.00000,  0.00000,  0.00000,  1
1033,  1082,  '99',  0.10755,  0.36198,  0.00000,  0.00,  0.00,  0.00,  0.00000,  0.000,  0.00000,  0.00000,  0.00000,  0.00000,  1
1033,  1088,  '99',  0.01631,  0.50945,  0.00000,  0.00,  0.00,  0.00,  0.00000,  0.000,  0.00000,  0.00000,  0.00000,  0.00000,  1
1033,  3020,  '99',  0.03690,  0.84824,  0.00000,  0.00,  0.00,  0.00,  0.00000,  0.000,  0.00000,  0.00000,  0.00000,  0.00000,  1
1033,  4115,  '99',  0.16363,  3.79105,  0.00000,  0.00,  0.00,  0.00,  0.00000,  0.000,  0.00000,  0.00000,  0.00000,  0.00000,  1
1033,  4116,  '99',  0.21126,  3.98718,  0.00000,  0.00,  0.00,  0.00,  0.00000,  0.000,  0.00000,  0.00000,  0.00000,  0.00000,  1
1033,  4195,  '99',  0.30676,  2.72085,  0.00000,  0.00,  0.00,  0.00,  0.00000,  0.000,  0.00000,  0.00000,  0.00000,  0.00000,  1
1035,  1042,  '99',  0.02667,  0.81326,  0.00000,  0.00,  0.00,  0.00,  0.00000,  0.000,  0.00000,  0.00000,  0.00000,  0.00000,  1
1035,  1043,  '99',  0.01736,  0.93903,  0.00000,  0.00,  0.00,  0.00,  0.00000,  0.000,  0.00000,  0.00000,  0.00000,  0.00000,  1
1035,  1057,  '99',  0.15690,  2.64932,  0.00000,  0.00,  0.00,  0.00,  0.00000,  0.000,  0.00000,  0.00000,  0.00000,  0.00000,  1
1035,  1066,  '99',  0.06457,  1.14404,  0.00000,  0.00,  0.00,  0.00,  0.00000,  0.000,  0.00000,  0.00000,  0.00000,  0.00000,  1
1035,  1084,  '99',  0.78429,  2.57973,  0.00000,  0.00,  0.00,  0.00,  0.00000,  0.000,  0.00000,  0.00000,  0.00000,  0.00000,  1
1035,  1088,  '99',  0.05760,  0.96156,  0.00000,  0.00,  0.00,  0.00,  0.00000,  0.000,  0.00000,  0.00000,  0.00000,  0.00000,  1
1039,  1048,  '99',  0.04609,  3.39396,  0.00000,  0.00,  0.00,  0.00,  0.00000,  0.000,  0.00000,  0.00000,  0.00000,  0.00000,  1
1039,  1053,  '99',  -0.05093,  4.54172,  0.00000,  0.00,  0.00,  0.00,  0.00000,  0.000,  0.00000,  0.00000,  0.00000,  0.00000,  1
1039,  1082,  '99',  0.01248,  0.17235,  0.00000,  0.00,  0.00,  0.00,  0.00000,  0.000,  0.00000,  0.00000,  0.00000,  0.00000,  1
1039,  1088,  '99',  0.64942,  3.18919,  0.00000,  0.00,  0.00,  0.00,  0.00000,  0.000,  0.00000,  0.00000,  0.00000,  0.00000,  1
1042,  1043,  '99',  -0.02472,  0.56599,  0.00000,  0.00,  0.00,  0.00,  0.00000,  0.000,  0.00000,  0.00000,  0.00000,  0.00000,  1
1042,  1057,  '99',  0.02795,  2.04742,  0.00000,  0.00,  0.00,  0.00,  0.00000,  0.000,  0.00000,  0.00000,  0.00000,  0.00000,  1
1042,  1066,  '99',  -0.00383,  0.70004,  0.00000,  0.00,  0.00,  0.00,  0.00000,  0.000,  0.00000,  0.00000,  0.00000,  0.00000,  1
1042,  1084,  '99',  0.81856,  2.78809,  0.00000,  0.00,  0.00,  0.00,  0.00000,  0.000,  0.00000,  0.00000,  0.00000,  0.00000,  1
1042,  1088,  '99',  0.41787,  4.20524,  0.00000,  0.00,  0.00,  0.00,  0.00000,  0.000,  0.00000,  0.00000,  0.00000,  0.00000,  1
1043,  1057,  '99',  -0.00154,  2.36340,  0.00000,  0.00,  0.00,  0.00,  0.00000,  0.000,  0.00000,  0.00000,  0.00000,  0.00000,  1
1043,  1066,  '99',  -0.01597,  0.80786,  0.00000,  0.00,  0.00,  0.00,  0.00000,  0.000,  0.00000,  0.00000,  0.00000,  0.00000,  1
1043,  1084,  '99',  0.89869,  3.23125,  0.00000,  0.00,  0.00,  0.00,  0.00000,  0.000,  0.00000,  0.00000,  0.00000,  0.00000,  1
1043,  1088,  '99',  0.41286,  4.86018,  0.00000,  0.00,  0.00,  0.00,  0.00000,  0.000,  0.00000,  0.00000,  0.00000,  0.00000,  1
1048,  1049,  '99',  -0.00070,  0.36799,  0.00000,  0.00,  0.00,  0.00,  0.00000,  0.000,  0.00000,  0.00000,  0.00000,  0.00000,  1
1048,  1053,  '99',  0.00022,  0.27510,  0.00000,  0.00,  0.00,  0.00,  0.00000,  0.000,  0.00000,  0.00000,  0.00000,  0.00000,  1
1048,  1082,  '99',  0.42880,  1.93355,  0.00000,  0.00,  0.00,  0.00,  0.00000,  0.000,  0.00000,  0.00000,  0.00000,  0.00000,  1
1048,  1090,  '99',  0.07399,  0.48566,  0.00000,  0.00,  0.00,  0.00,  0.00000,  0.000,  0.00000,  0.00000,  0.00000,  0.00000,  1
1049,  1053,  '99',  -0.01314,  0.49225,  0.00000,  0.00,  0.00,  0.00,  0.00000,  0.000,  0.00000,  0.00000,  0.00000,  0.00000,  1
1049,  1082,  '99',  0.67216,  3.48082,  0.00000,  0.00,  0.00,  0.00,  0.00000,  0.000,  0.00000,  0.00000,  0.00000,  0.00000,  1
1049,  1090,  '99',  0.10851,  0.87264,  0.00000,  0.00,  0.00,  0.00,  0.00000,  0.000,  0.00000,  0.00000,  0.00000,  0.00000,  1
1053,  1081,  '99',  0.00299,  0.02991,  0.00000,  0.00,  0.00,  0.00,  0.00000,  0.000,  0.00000,  0.00000,  0.00000,  0.00000,  1
1053,  1082,  '99',  0.50948,  2.60079,  0.00000,  0.00,  0.00,  0.00,  0.00000,  0.000,  0.00000,  0.00000,  0.00000,  0.00000,  1
1053,  1090,  '99',  0.08287,  0.65214,  0.00000,  0.00,  0.00,  0.00,  0.00000,  0.000,  0.00000,  0.00000,  0.00000,  0.00000,  1
...